/*--------------------------------*- C++ -*----------------------------------*\
  =========                 |
  \\      /  F ield         | OpenFOAM: The Open Source CFD Toolbox
   \\    /   O peration     | Website:  https://openfoam.org
    \\  /    A nd           | Version:  7
     \\/     M anipulation  |
\*---------------------------------------------------------------------------*/
FoamFile
{
    version     2.0;
    format      ascii;
    class       dictionary;
    object      blockMeshDict;
}
// * * * * * * * * * * * * * * * * * * * * * * * * * * * * * * * * * * * * * //

convertToMeters 1;
length 0.02;//length of the rod
depth 0.005;//depth of palte 
vertices
(
  
(0 0 0)//Vertice 0 origin 
($length 0 0 )//Vertice 1 ox vector
($length $length 0)//Vertice 2 xy vector
(0 $length 0)//Vertice 3 0y vector
(0 0 $depth)//Vertice 0 of z origin 
($length 0 $depth )//Vertice 1 zx vector
($length $length $depth)//Vertice 2 zy vector
(0 $length $depth)//Vertice 3 zy vector
);
blocks
(
    hex (0 1 2 3 4 5 6 7) (5 5 1) simpleGrading (1 1 1)
);



boundary
(
    left
    {
        type patch;
        faces
        (
            (0 4 7 3)
        );
    }
    right
    {
        type patch;
        faces
        (
            (2 6 5 1)
        );
    }
    top
    {
        type patch;
        faces
        (
            (2 3 7 6)
        );
    }
    bottom
    {
        type patch;
        faces
        (
            (1 0 4 5)
        );
    }

);

mergePatchPairs
(

);



// ************************************************************************* //
