/*--------------------------------*- C++ -*----------------------------------*\
  =========                 |
  \\      /  F ield         | OpenFOAM: The Open Source CFD Toolbox
   \\    /   O peration     | Website:  https://openfoam.org
    \\  /    A nd           | Version:  7
     \\/     M anipulation  |
\*---------------------------------------------------------------------------*/
FoamFile
{
    version     2.0;
    format      ascii;
    class       polyBoundaryMesh;
    location    "constant/polyMesh";
    object      boundary;
}
// * * * * * * * * * * * * * * * * * * * * * * * * * * * * * * * * * * * * * //

5
(
    ground
    {
        type            patch;
        nFaces          442;
        startFace       9633;
    }
    inlet
    {
        type            patch;
        nFaces          114;
        startFace       10075;
    }
    sides
    {
        type            patch;
        nFaces          970;
        startFace       10189;
    }
    building
    {
        type            patch;
        nFaces          10;
        startFace       11159;
    }
    outlet
    {
        type            patch;
        nFaces          118;
        startFace       11169;
    }
)

// ************************************************************************* //
