/*--------------------------------*- C++ -*----------------------------------*\
  =========                 |
  \\      /  F ield         | OpenFOAM: The Open Source CFD Toolbox
   \\    /   O peration     | Website:  https://openfoam.org
    \\  /    A nd           | Version:  7
     \\/     M anipulation  |
\*---------------------------------------------------------------------------*/
FoamFile
{
    version     2.0;
    format      ascii;
    class       polyBoundaryMesh;
    location    "constant/polyMesh";
    object      boundary;
}
// * * * * * * * * * * * * * * * * * * * * * * * * * * * * * * * * * * * * * //

5
(
    left
    {
        type            patch;
        nFaces          5;
        startFace       40;
    }
    right
    {
        type            patch;
        nFaces          5;
        startFace       45;
    }
    top
    {
        type            patch;
        nFaces          5;
        startFace       50;
    }
    bottom
    {
        type            patch;
        nFaces          5;
        startFace       55;
    }
    defaultFaces
    {
        type            empty;
        inGroups        List<word> 1(empty);
        nFaces          50;
        startFace       60;
    }
)

// ************************************************************************* //
